Version 4
SHEET 1 880 680
WIRE -448 416 -512 416
WIRE -512 464 -512 416
FLAG -512 544 0
SYMBOL res -352 400 R90
WINDOW 0 0 56 VBottom 2
WINDOW 3 32 56 VTop 2
SYMATTR InstName R1
SYMBOL voltage -512 448 R0
WINDOW 123 24 118 Left 2
SYMATTR InstName V1
SYMATTR Value ""
SYMATTR Value2 AC 1
SYMBOL cap 32 368 R0
SYMATTR InstName C1
SYMBOL ind 16 480 R0
SYMATTR InstName L1
