Version 4
SHEET 1 1396 688
WIRE -464 128 -560 128
WIRE -464 160 -464 128
WIRE -560 176 -560 128
WIRE -464 272 -464 240
WIRE -48 272 -464 272
WIRE 48 272 -48 272
WIRE 176 272 48 272
WIRE 368 272 256 272
WIRE -464 304 -464 272
WIRE -48 304 -48 272
WIRE 48 304 48 272
WIRE 368 336 368 272
WIRE -48 400 -48 368
WIRE -464 416 -464 384
WIRE 368 432 368 400
WIRE -48 496 -48 480
WIRE 48 496 48 368
WIRE 48 496 -48 496
WIRE -48 512 -48 496
FLAG -560 176 0
FLAG -464 416 0
FLAG 368 432 0
FLAG -48 512 0
SYMBOL cap 352 336 R0
SYMATTR InstName C1
SYMATTR Value 1.2nF
SYMBOL cap -32 368 R180
WINDOW 0 24 56 Left 2
WINDOW 3 24 8 Left 2
SYMATTR InstName C2
SYMATTR Value 39nF
SYMBOL cap 64 368 R180
WINDOW 0 24 56 Left 2
WINDOW 3 24 8 Left 2
SYMATTR InstName C3
SYMATTR Value 2.7nF
SYMBOL res -32 496 R180
WINDOW 0 36 76 Left 2
WINDOW 3 36 40 Left 2
SYMATTR InstName R1
SYMATTR Value 360
SYMBOL current -464 160 R0
WINDOW 123 0 0 Left 0
WINDOW 39 0 0 Left 0
SYMATTR InstName I1
SYMATTR Value PULSE(0 .001 0ns 0 0 1ns 42ns 300)
SYMBOL current -464 384 R180
WINDOW 123 0 0 Left 0
WINDOW 39 0 0 Left 0
SYMATTR InstName I3
SYMATTR Value PULSE(0 -.00 39.5ns 0 0 1ns 80ns)
SYMBOL res 272 256 R90
WINDOW 0 0 56 VBottom 2
WINDOW 3 32 56 VTop 2
SYMATTR InstName R2
SYMATTR Value 500
TEXT -496 544 Left 2 ;Loop filter pre-charge\n(expect this to be directly connected to caps, bypassing R)
TEXT 408 144 Left 2 ;VCO_VCC\nAre we decoupling an internal signal, or are we also injecting the actual VCO voltage?
TEXT -1040 80 Left 2 ;Charge pump out\n(this would be getting filtered by the loop filter)
TEXT -720 672 Left 2 !.tran 30us
TEXT -520 -136 Left 2 ;Based on the PLL reference design given for the ADF4351 on pg. 25 of its datasheet. \nThis topology is very close to the one used on the reverse-engineered Mirics TV dongle.
LINE Normal -208 384 -64 384 2
LINE Normal -336 512 -208 384 2
